<?xml version="1.0" encoding="UTF-8"?>

<!-- generated on 2026-01-12T23:47:12.236398+00:00 by Eclipse SUMO netconvert 1.25.0
<netconvertConfiguration xmlns:xsi="http://www.w3.org/2001/XMLSchema-instance" xsi:noNamespaceSchemaLocation="http://sumo.dlr.de/xsd/netconvertConfiguration.xsd">

    <input>
        <node-files value="scenarios/single-lane/nodes.nod.xml"/>
        <edge-files value="scenarios/single-lane/edges.edg.xml"/>
    </input>

    <output>
        <output-file value="scenarios/single-lane/net.net.xml"/>
    </output>

</netconvertConfiguration>
-->

<net version="1.20" junctionCornerDetail="5" limitTurnSpeed="5.50" xmlns:xsi="http://www.w3.org/2001/XMLSchema-instance" xsi:noNamespaceSchemaLocation="http://sumo.dlr.de/xsd/net_file.xsd">

    <location netOffset="0.00,0.00" convBoundary="0.00,0.00,5000.00,0.00" origBoundary="0.00,0.00,5000.00,0.00" projParameter="!"/>

    <edge id="e0" from="n0" to="n1" priority="-1">
        <lane id="e0_0" index="0" speed="30.00" length="5000.00" shape="-0.00,-1.60 5000.00,-1.60"/>
    </edge>

    <junction id="n0" type="dead_end" x="0.00" y="0.00" incLanes="" intLanes="" shape="-0.00,0.00 -0.00,-3.20"/>
    <junction id="n1" type="dead_end" x="5000.00" y="0.00" incLanes="e0_0" intLanes="" shape="5000.00,-3.20 5000.00,0.00"/>

</net>
